<additional>
     <edgeData id="11111111" file="traffic-simulation\xml\scenario1\meandata.output.xml" />
</additional>