<additional>
     <edgeData id="11111111" file="C:\Users\Philipp\OneDrive\Dokumente\GitHub\ba-philipp-grill\xml\scenario1\meandata.xml" />
</additional>