<?xml version="1.0" encoding="UTF-8"?>

<!-- generated on 2022-09-28 14:48:17 by Eclipse SUMO netgenerate Version 1.14.0
<configuration xmlns:xsi="http://www.w3.org/2001/XMLSchema-instance" xsi:noNamespaceSchemaLocation="http://sumo.dlr.de/xsd/netgenerateConfiguration.xsd">

    <grid_network>
        <grid value="true"/>
        <grid.number value="5"/>
        <grid.length value="500"/>
    </grid_network>

    <output>
        <output-file value="../xml/scenario1/grid.net.xml"/>
    </output>

    <building_defaults>
        <default.lanenumber value="2"/>
        <default-junction-type value="traffic_light"/>
    </building_defaults>

</configuration>
-->

<net version="1.9" junctionCornerDetail="5" limitTurnSpeed="5.50" xmlns:xsi="http://www.w3.org/2001/XMLSchema-instance" xsi:noNamespaceSchemaLocation="http://sumo.dlr.de/xsd/net_file.xsd">

    <location netOffset="0.00,0.00" convBoundary="0.00,0.00,2000.00,2000.00" origBoundary="0.00,0.00,2000.00,2000.00" projParameter="!"/>

    <edge id=":A0_0" function="internal">
        <lane id=":A0_0_0" index="0" speed="8.96" length="18.06" shape="-4.80,6.40 -4.10,1.50 -2.00,-2.00 1.50,-4.10 6.40,-4.80"/>
        <lane id=":A0_0_1" index="1" speed="7.66" length="12.90" shape="-1.60,6.40 -1.10,2.90 0.40,0.40 2.90,-1.10 6.40,-1.60"/>
    </edge>
    <edge id=":A0_2" function="internal">
        <lane id=":A0_2_0" index="0" speed="3.90" length="2.58" shape="6.40,4.80 5.70,4.90 5.20,5.20 4.90,5.70 4.80,6.40"/>
        <lane id=":A0_2_1" index="1" speed="6.08" length="7.74" shape="6.40,1.60 4.30,1.90 2.80,2.80 1.90,4.30 1.60,6.40"/>
    </edge>
    <edge id=":A1_0" function="internal">
        <lane id=":A1_0_0" index="0" speed="13.89" length="20.80" shape="-4.80,510.40 -4.80,489.60"/>
        <lane id=":A1_0_1" index="1" speed="13.89" length="20.80" shape="-1.60,510.40 -1.60,489.60"/>
    </edge>
    <edge id=":A1_2" function="internal">
        <lane id=":A1_2_0" index="0" speed="9.26" length="5.01" shape="-1.60,510.40 -0.89,505.44"/>
    </edge>
    <edge id=":A1_3" function="internal">
        <lane id=":A1_3_0" index="0" speed="3.65" length="1.44" shape="-1.60,510.40 -0.80,509.20"/>
    </edge>
    <edge id=":A1_12" function="internal">
        <lane id=":A1_12_0" index="0" speed="9.26" length="14.34" shape="-0.89,505.44 -0.85,505.15 1.40,501.40 5.15,499.15 10.40,498.40"/>
    </edge>
    <edge id=":A1_13" function="internal">
        <lane id=":A1_13_0" index="0" speed="3.65" length="3.23" shape="-0.80,509.20 0.00,508.80 0.80,509.20 1.60,510.40"/>
    </edge>
    <edge id=":A1_4" function="internal">
        <lane id=":A1_4_0" index="0" speed="6.51" length="9.03" shape="10.40,504.80 7.95,505.15 6.20,506.20 5.15,507.95 4.80,510.40"/>
        <lane id=":A1_4_1" index="1" speed="8.00" length="14.19" shape="10.40,501.60 6.55,502.15 3.80,503.80 2.15,506.55 1.60,510.40"/>
    </edge>
    <edge id=":A1_6" function="internal">
        <lane id=":A1_6_0" index="0" speed="9.26" length="19.35" shape="10.40,501.60 5.15,500.85 1.40,498.60 -0.85,494.85 -1.60,489.60"/>
    </edge>
    <edge id=":A1_7" function="internal">
        <lane id=":A1_7_0" index="0" speed="3.65" length="2.34" shape="10.40,501.60 9.20,500.80 8.80,500.00"/>
    </edge>
    <edge id=":A1_14" function="internal">
        <lane id=":A1_14_0" index="0" speed="3.65" length="2.34" shape="8.80,500.00 9.20,499.20 10.40,498.40"/>
    </edge>
    <edge id=":A1_8" function="internal">
        <lane id=":A1_8_0" index="0" speed="6.51" length="9.03" shape="4.80,489.60 5.15,492.05 6.20,493.80 7.95,494.85 10.40,495.20"/>
    </edge>
    <edge id=":A1_9" function="internal">
        <lane id=":A1_9_0" index="0" speed="13.89" length="20.80" shape="4.80,489.60 4.80,510.40"/>
        <lane id=":A1_9_1" index="1" speed="13.89" length="20.80" shape="1.60,489.60 1.60,510.40"/>
    </edge>
    <edge id=":A1_11" function="internal">
        <lane id=":A1_11_0" index="0" speed="3.65" length="1.44" shape="1.60,489.60 0.80,490.80"/>
    </edge>
    <edge id=":A1_15" function="internal">
        <lane id=":A1_15_0" index="0" speed="3.65" length="3.23" shape="0.80,490.80 0.00,491.20 -0.80,490.80 -1.60,489.60"/>
    </edge>
    <edge id=":A2_0" function="internal">
        <lane id=":A2_0_0" index="0" speed="13.89" length="20.80" shape="-4.80,1010.40 -4.80,989.60"/>
        <lane id=":A2_0_1" index="1" speed="13.89" length="20.80" shape="-1.60,1010.40 -1.60,989.60"/>
    </edge>
    <edge id=":A2_2" function="internal">
        <lane id=":A2_2_0" index="0" speed="9.26" length="5.01" shape="-1.60,1010.40 -0.89,1005.44"/>
    </edge>
    <edge id=":A2_3" function="internal">
        <lane id=":A2_3_0" index="0" speed="3.65" length="1.44" shape="-1.60,1010.40 -0.80,1009.20"/>
    </edge>
    <edge id=":A2_12" function="internal">
        <lane id=":A2_12_0" index="0" speed="9.26" length="14.34" shape="-0.89,1005.44 -0.85,1005.15 1.40,1001.40 5.15,999.15 10.40,998.40"/>
    </edge>
    <edge id=":A2_13" function="internal">
        <lane id=":A2_13_0" index="0" speed="3.65" length="3.23" shape="-0.80,1009.20 0.00,1008.80 0.80,1009.20 1.60,1010.40"/>
    </edge>
    <edge id=":A2_4" function="internal">
        <lane id=":A2_4_0" index="0" speed="6.51" length="9.03" shape="10.40,1004.80 7.95,1005.15 6.20,1006.20 5.15,1007.95 4.80,1010.40"/>
        <lane id=":A2_4_1" index="1" speed="8.00" length="14.19" shape="10.40,1001.60 6.55,1002.15 3.80,1003.80 2.15,1006.55 1.60,1010.40"/>
    </edge>
    <edge id=":A2_6" function="internal">
        <lane id=":A2_6_0" index="0" speed="9.26" length="19.35" shape="10.40,1001.60 5.15,1000.85 1.40,998.60 -0.85,994.85 -1.60,989.60"/>
    </edge>
    <edge id=":A2_7" function="internal">
        <lane id=":A2_7_0" index="0" speed="3.65" length="2.34" shape="10.40,1001.60 9.20,1000.80 8.80,1000.00"/>
    </edge>
    <edge id=":A2_14" function="internal">
        <lane id=":A2_14_0" index="0" speed="3.65" length="2.34" shape="8.80,1000.00 9.20,999.20 10.40,998.40"/>
    </edge>
    <edge id=":A2_8" function="internal">
        <lane id=":A2_8_0" index="0" speed="6.51" length="9.03" shape="4.80,989.60 5.15,992.05 6.20,993.80 7.95,994.85 10.40,995.20"/>
    </edge>
    <edge id=":A2_9" function="internal">
        <lane id=":A2_9_0" index="0" speed="13.89" length="20.80" shape="4.80,989.60 4.80,1010.40"/>
        <lane id=":A2_9_1" index="1" speed="13.89" length="20.80" shape="1.60,989.60 1.60,1010.40"/>
    </edge>
    <edge id=":A2_11" function="internal">
        <lane id=":A2_11_0" index="0" speed="3.65" length="1.44" shape="1.60,989.60 0.80,990.80"/>
    </edge>
    <edge id=":A2_15" function="internal">
        <lane id=":A2_15_0" index="0" speed="3.65" length="3.23" shape="0.80,990.80 0.00,991.20 -0.80,990.80 -1.60,989.60"/>
    </edge>
    <edge id=":A3_0" function="internal">
        <lane id=":A3_0_0" index="0" speed="13.89" length="20.80" shape="-4.80,1510.40 -4.80,1489.60"/>
        <lane id=":A3_0_1" index="1" speed="13.89" length="20.80" shape="-1.60,1510.40 -1.60,1489.60"/>
    </edge>
    <edge id=":A3_2" function="internal">
        <lane id=":A3_2_0" index="0" speed="9.26" length="5.01" shape="-1.60,1510.40 -0.89,1505.44"/>
    </edge>
    <edge id=":A3_3" function="internal">
        <lane id=":A3_3_0" index="0" speed="3.65" length="1.44" shape="-1.60,1510.40 -0.80,1509.20"/>
    </edge>
    <edge id=":A3_12" function="internal">
        <lane id=":A3_12_0" index="0" speed="9.26" length="14.34" shape="-0.89,1505.44 -0.85,1505.15 1.40,1501.40 5.15,1499.15 10.40,1498.40"/>
    </edge>
    <edge id=":A3_13" function="internal">
        <lane id=":A3_13_0" index="0" speed="3.65" length="3.23" shape="-0.80,1509.20 0.00,1508.80 0.80,1509.20 1.60,1510.40"/>
    </edge>
    <edge id=":A3_4" function="internal">
        <lane id=":A3_4_0" index="0" speed="6.51" length="9.03" shape="10.40,1504.80 7.95,1505.15 6.20,1506.20 5.15,1507.95 4.80,1510.40"/>
        <lane id=":A3_4_1" index="1" speed="8.00" length="14.19" shape="10.40,1501.60 6.55,1502.15 3.80,1503.80 2.15,1506.55 1.60,1510.40"/>
    </edge>
    <edge id=":A3_6" function="internal">
        <lane id=":A3_6_0" index="0" speed="9.26" length="19.35" shape="10.40,1501.60 5.15,1500.85 1.40,1498.60 -0.85,1494.85 -1.60,1489.60"/>
    </edge>
    <edge id=":A3_7" function="internal">
        <lane id=":A3_7_0" index="0" speed="3.65" length="2.34" shape="10.40,1501.60 9.20,1500.80 8.80,1500.00"/>
    </edge>
    <edge id=":A3_14" function="internal">
        <lane id=":A3_14_0" index="0" speed="3.65" length="2.34" shape="8.80,1500.00 9.20,1499.20 10.40,1498.40"/>
    </edge>
    <edge id=":A3_8" function="internal">
        <lane id=":A3_8_0" index="0" speed="6.51" length="9.03" shape="4.80,1489.60 5.15,1492.05 6.20,1493.80 7.95,1494.85 10.40,1495.20"/>
    </edge>
    <edge id=":A3_9" function="internal">
        <lane id=":A3_9_0" index="0" speed="13.89" length="20.80" shape="4.80,1489.60 4.80,1510.40"/>
        <lane id=":A3_9_1" index="1" speed="13.89" length="20.80" shape="1.60,1489.60 1.60,1510.40"/>
    </edge>
    <edge id=":A3_11" function="internal">
        <lane id=":A3_11_0" index="0" speed="3.65" length="1.44" shape="1.60,1489.60 0.80,1490.80"/>
    </edge>
    <edge id=":A3_15" function="internal">
        <lane id=":A3_15_0" index="0" speed="3.65" length="3.23" shape="0.80,1490.80 0.00,1491.20 -0.80,1490.80 -1.60,1489.60"/>
    </edge>
    <edge id=":A4_0" function="internal">
        <lane id=":A4_0_0" index="0" speed="8.96" length="18.06" shape="6.40,2004.80 1.50,2004.10 -2.00,2002.00 -4.10,1998.50 -4.80,1993.60"/>
        <lane id=":A4_0_1" index="1" speed="7.66" length="12.90" shape="6.40,2001.60 2.90,2001.10 0.40,1999.60 -1.10,1997.10 -1.60,1993.60"/>
    </edge>
    <edge id=":A4_2" function="internal">
        <lane id=":A4_2_0" index="0" speed="3.90" length="2.58" shape="4.80,1993.60 4.90,1994.30 5.20,1994.80 5.70,1995.10 6.40,1995.20"/>
        <lane id=":A4_2_1" index="1" speed="6.08" length="7.74" shape="1.60,1993.60 1.90,1995.70 2.80,1997.20 4.30,1998.10 6.40,1998.40"/>
    </edge>
    <edge id=":B0_0" function="internal">
        <lane id=":B0_0_0" index="0" speed="6.51" length="9.03" shape="495.20,10.40 494.85,7.95 493.80,6.20 492.05,5.15 489.60,4.80"/>
        <lane id=":B0_0_1" index="1" speed="8.00" length="14.19" shape="498.40,10.40 497.85,6.55 496.20,3.80 493.45,2.15 489.60,1.60"/>
    </edge>
    <edge id=":B0_2" function="internal">
        <lane id=":B0_2_0" index="0" speed="9.26" length="19.35" shape="498.40,10.40 499.15,5.15 501.40,1.40 505.15,-0.85 510.40,-1.60"/>
    </edge>
    <edge id=":B0_3" function="internal">
        <lane id=":B0_3_0" index="0" speed="3.65" length="2.34" shape="498.40,10.40 499.20,9.20 500.00,8.80"/>
    </edge>
    <edge id=":B0_12" function="internal">
        <lane id=":B0_12_0" index="0" speed="3.65" length="2.34" shape="500.00,8.80 500.80,9.20 501.60,10.40"/>
    </edge>
    <edge id=":B0_4" function="internal">
        <lane id=":B0_4_0" index="0" speed="6.51" length="9.03" shape="510.40,4.80 507.95,5.15 506.20,6.20 505.15,7.95 504.80,10.40"/>
    </edge>
    <edge id=":B0_5" function="internal">
        <lane id=":B0_5_0" index="0" speed="13.89" length="20.80" shape="510.40,4.80 489.60,4.80"/>
        <lane id=":B0_5_1" index="1" speed="13.89" length="20.80" shape="510.40,1.60 489.60,1.60"/>
    </edge>
    <edge id=":B0_7" function="internal">
        <lane id=":B0_7_0" index="0" speed="3.65" length="1.44" shape="510.40,1.60 509.20,0.80"/>
    </edge>
    <edge id=":B0_13" function="internal">
        <lane id=":B0_13_0" index="0" speed="3.65" length="3.23" shape="509.20,0.80 508.80,0.00 509.20,-0.80 510.40,-1.60"/>
    </edge>
    <edge id=":B0_8" function="internal">
        <lane id=":B0_8_0" index="0" speed="13.89" length="20.80" shape="489.60,-4.80 510.40,-4.80"/>
        <lane id=":B0_8_1" index="1" speed="13.89" length="20.80" shape="489.60,-1.60 510.40,-1.60"/>
    </edge>
    <edge id=":B0_10" function="internal">
        <lane id=":B0_10_0" index="0" speed="9.26" length="5.01" shape="489.60,-1.60 494.56,-0.89"/>
    </edge>
    <edge id=":B0_11" function="internal">
        <lane id=":B0_11_0" index="0" speed="3.65" length="1.44" shape="489.60,-1.60 490.80,-0.80"/>
    </edge>
    <edge id=":B0_14" function="internal">
        <lane id=":B0_14_0" index="0" speed="9.26" length="14.34" shape="494.56,-0.89 494.85,-0.85 498.60,1.40 500.85,5.15 501.60,10.40"/>
    </edge>
    <edge id=":B0_15" function="internal">
        <lane id=":B0_15_0" index="0" speed="3.65" length="3.23" shape="490.80,-0.80 491.20,0.00 490.80,0.80 489.60,1.60"/>
    </edge>
    <edge id=":B1_0" function="internal">
        <lane id=":B1_0_0" index="0" speed="6.51" length="9.03" shape="495.20,510.40 494.85,507.95 493.80,506.20 492.05,505.15 489.60,504.80"/>
    </edge>
    <edge id=":B1_1" function="internal">
        <lane id=":B1_1_0" index="0" speed="13.89" length="20.80" shape="495.20,510.40 495.20,489.60"/>
        <lane id=":B1_1_1" index="1" speed="13.89" length="20.80" shape="498.40,510.40 498.40,489.60"/>
    </edge>
    <edge id=":B1_3" function="internal">
        <lane id=":B1_3_0" index="0" speed="9.26" length="5.01" shape="498.40,510.40 499.11,505.44"/>
    </edge>
    <edge id=":B1_4" function="internal">
        <lane id=":B1_4_0" index="0" speed="3.65" length="1.44" shape="498.40,510.40 499.20,509.20"/>
    </edge>
    <edge id=":B1_20" function="internal">
        <lane id=":B1_20_0" index="0" speed="9.26" length="14.34" shape="499.11,505.44 499.15,505.15 501.40,501.40 505.15,499.15 510.40,498.40"/>
    </edge>
    <edge id=":B1_21" function="internal">
        <lane id=":B1_21_0" index="0" speed="3.65" length="3.23" shape="499.20,509.20 500.00,508.80 500.80,509.20 501.60,510.40"/>
    </edge>
    <edge id=":B1_5" function="internal">
        <lane id=":B1_5_0" index="0" speed="6.51" length="9.03" shape="510.40,504.80 507.95,505.15 506.20,506.20 505.15,507.95 504.80,510.40"/>
    </edge>
    <edge id=":B1_6" function="internal">
        <lane id=":B1_6_0" index="0" speed="13.89" length="20.80" shape="510.40,504.80 489.60,504.80"/>
        <lane id=":B1_6_1" index="1" speed="13.89" length="20.80" shape="510.40,501.60 489.60,501.60"/>
    </edge>
    <edge id=":B1_8" function="internal">
        <lane id=":B1_8_0" index="0" speed="9.26" length="5.01" shape="510.40,501.60 505.44,500.89"/>
    </edge>
    <edge id=":B1_9" function="internal">
        <lane id=":B1_9_0" index="0" speed="3.65" length="1.44" shape="510.40,501.60 509.20,500.80"/>
    </edge>
    <edge id=":B1_22" function="internal">
        <lane id=":B1_22_0" index="0" speed="9.26" length="14.34" shape="505.44,500.89 505.15,500.85 501.40,498.60 499.15,494.85 498.40,489.60"/>
    </edge>
    <edge id=":B1_23" function="internal">
        <lane id=":B1_23_0" index="0" speed="3.65" length="3.23" shape="509.20,500.80 508.80,500.00 509.20,499.20 510.40,498.40"/>
    </edge>
    <edge id=":B1_10" function="internal">
        <lane id=":B1_10_0" index="0" speed="6.51" length="9.03" shape="504.80,489.60 505.15,492.05 506.20,493.80 507.95,494.85 510.40,495.20"/>
    </edge>
    <edge id=":B1_11" function="internal">
        <lane id=":B1_11_0" index="0" speed="13.89" length="20.80" shape="504.80,489.60 504.80,510.40"/>
        <lane id=":B1_11_1" index="1" speed="13.89" length="20.80" shape="501.60,489.60 501.60,510.40"/>
    </edge>
    <edge id=":B1_13" function="internal">
        <lane id=":B1_13_0" index="0" speed="9.26" length="5.01" shape="501.60,489.60 500.89,494.56"/>
    </edge>
    <edge id=":B1_14" function="internal">
        <lane id=":B1_14_0" index="0" speed="3.65" length="1.44" shape="501.60,489.60 500.80,490.80"/>
    </edge>
    <edge id=":B1_24" function="internal">
        <lane id=":B1_24_0" index="0" speed="9.26" length="14.34" shape="500.89,494.56 500.85,494.85 498.60,498.60 494.85,500.85 489.60,501.60"/>
    </edge>
    <edge id=":B1_25" function="internal">
        <lane id=":B1_25_0" index="0" speed="3.65" length="3.23" shape="500.80,490.80 500.00,491.20 499.20,490.80 498.40,489.60"/>
    </edge>
    <edge id=":B1_15" function="internal">
        <lane id=":B1_15_0" index="0" speed="6.51" length="9.03" shape="489.60,495.20 492.05,494.85 493.80,493.80 494.85,492.05 495.20,489.60"/>
    </edge>
    <edge id=":B1_16" function="internal">
        <lane id=":B1_16_0" index="0" speed="13.89" length="20.80" shape="489.60,495.20 510.40,495.20"/>
        <lane id=":B1_16_1" index="1" speed="13.89" length="20.80" shape="489.60,498.40 510.40,498.40"/>
    </edge>
    <edge id=":B1_18" function="internal">
        <lane id=":B1_18_0" index="0" speed="9.26" length="5.01" shape="489.60,498.40 494.56,499.11"/>
    </edge>
    <edge id=":B1_19" function="internal">
        <lane id=":B1_19_0" index="0" speed="3.65" length="1.44" shape="489.60,498.40 490.80,499.20"/>
    </edge>
    <edge id=":B1_26" function="internal">
        <lane id=":B1_26_0" index="0" speed="9.26" length="14.34" shape="494.56,499.11 494.85,499.15 498.60,501.40 500.85,505.15 501.60,510.40"/>
    </edge>
    <edge id=":B1_27" function="internal">
        <lane id=":B1_27_0" index="0" speed="3.65" length="3.23" shape="490.80,499.20 491.20,500.00 490.80,500.80 489.60,501.60"/>
    </edge>
    <edge id=":B2_0" function="internal">
        <lane id=":B2_0_0" index="0" speed="6.51" length="9.03" shape="495.20,1010.40 494.85,1007.95 493.80,1006.20 492.05,1005.15 489.60,1004.80"/>
    </edge>
    <edge id=":B2_1" function="internal">
        <lane id=":B2_1_0" index="0" speed="13.89" length="20.80" shape="495.20,1010.40 495.20,989.60"/>
        <lane id=":B2_1_1" index="1" speed="13.89" length="20.80" shape="498.40,1010.40 498.40,989.60"/>
    </edge>
    <edge id=":B2_3" function="internal">
        <lane id=":B2_3_0" index="0" speed="9.26" length="5.01" shape="498.40,1010.40 499.11,1005.44"/>
    </edge>
    <edge id=":B2_4" function="internal">
        <lane id=":B2_4_0" index="0" speed="3.65" length="1.44" shape="498.40,1010.40 499.20,1009.20"/>
    </edge>
    <edge id=":B2_20" function="internal">
        <lane id=":B2_20_0" index="0" speed="9.26" length="14.34" shape="499.11,1005.44 499.15,1005.15 501.40,1001.40 505.15,999.15 510.40,998.40"/>
    </edge>
    <edge id=":B2_21" function="internal">
        <lane id=":B2_21_0" index="0" speed="3.65" length="3.23" shape="499.20,1009.20 500.00,1008.80 500.80,1009.20 501.60,1010.40"/>
    </edge>
    <edge id=":B2_5" function="internal">
        <lane id=":B2_5_0" index="0" speed="6.51" length="9.03" shape="510.40,1004.80 507.95,1005.15 506.20,1006.20 505.15,1007.95 504.80,1010.40"/>
    </edge>
    <edge id=":B2_6" function="internal">
        <lane id=":B2_6_0" index="0" speed="13.89" length="20.80" shape="510.40,1004.80 489.60,1004.80"/>
        <lane id=":B2_6_1" index="1" speed="13.89" length="20.80" shape="510.40,1001.60 489.60,1001.60"/>
    </edge>
    <edge id=":B2_8" function="internal">
        <lane id=":B2_8_0" index="0" speed="9.26" length="5.01" shape="510.40,1001.60 505.44,1000.89"/>
    </edge>
    <edge id=":B2_9" function="internal">
        <lane id=":B2_9_0" index="0" speed="3.65" length="1.44" shape="510.40,1001.60 509.20,1000.80"/>
    </edge>
    <edge id=":B2_22" function="internal">
        <lane id=":B2_22_0" index="0" speed="9.26" length="14.34" shape="505.44,1000.89 505.15,1000.85 501.40,998.60 499.15,994.85 498.40,989.60"/>
    </edge>
    <edge id=":B2_23" function="internal">
        <lane id=":B2_23_0" index="0" speed="3.65" length="3.23" shape="509.20,1000.80 508.80,1000.00 509.20,999.20 510.40,998.40"/>
    </edge>
    <edge id=":B2_10" function="internal">
        <lane id=":B2_10_0" index="0" speed="6.51" length="9.03" shape="504.80,989.60 505.15,992.05 506.20,993.80 507.95,994.85 510.40,995.20"/>
    </edge>
    <edge id=":B2_11" function="internal">
        <lane id=":B2_11_0" index="0" speed="13.89" length="20.80" shape="504.80,989.60 504.80,1010.40"/>
        <lane id=":B2_11_1" index="1" speed="13.89" length="20.80" shape="501.60,989.60 501.60,1010.40"/>
    </edge>
    <edge id=":B2_13" function="internal">
        <lane id=":B2_13_0" index="0" speed="9.26" length="5.01" shape="501.60,989.60 500.89,994.56"/>
    </edge>
    <edge id=":B2_14" function="internal">
        <lane id=":B2_14_0" index="0" speed="3.65" length="1.44" shape="501.60,989.60 500.80,990.80"/>
    </edge>
    <edge id=":B2_24" function="internal">
        <lane id=":B2_24_0" index="0" speed="9.26" length="14.34" shape="500.89,994.56 500.85,994.85 498.60,998.60 494.85,1000.85 489.60,1001.60"/>
    </edge>
    <edge id=":B2_25" function="internal">
        <lane id=":B2_25_0" index="0" speed="3.65" length="3.23" shape="500.80,990.80 500.00,991.20 499.20,990.80 498.40,989.60"/>
    </edge>
    <edge id=":B2_15" function="internal">
        <lane id=":B2_15_0" index="0" speed="6.51" length="9.03" shape="489.60,995.20 492.05,994.85 493.80,993.80 494.85,992.05 495.20,989.60"/>
    </edge>
    <edge id=":B2_16" function="internal">
        <lane id=":B2_16_0" index="0" speed="13.89" length="20.80" shape="489.60,995.20 510.40,995.20"/>
        <lane id=":B2_16_1" index="1" speed="13.89" length="20.80" shape="489.60,998.40 510.40,998.40"/>
    </edge>
    <edge id=":B2_18" function="internal">
        <lane id=":B2_18_0" index="0" speed="9.26" length="5.01" shape="489.60,998.40 494.56,999.11"/>
    </edge>
    <edge id=":B2_19" function="internal">
        <lane id=":B2_19_0" index="0" speed="3.65" length="1.44" shape="489.60,998.40 490.80,999.20"/>
    </edge>
    <edge id=":B2_26" function="internal">
        <lane id=":B2_26_0" index="0" speed="9.26" length="14.34" shape="494.56,999.11 494.85,999.15 498.60,1001.40 500.85,1005.15 501.60,1010.40"/>
    </edge>
    <edge id=":B2_27" function="internal">
        <lane id=":B2_27_0" index="0" speed="3.65" length="3.23" shape="490.80,999.20 491.20,1000.00 490.80,1000.80 489.60,1001.60"/>
    </edge>
    <edge id=":B3_0" function="internal">
        <lane id=":B3_0_0" index="0" speed="6.51" length="9.03" shape="495.20,1510.40 494.85,1507.95 493.80,1506.20 492.05,1505.15 489.60,1504.80"/>
    </edge>
    <edge id=":B3_1" function="internal">
        <lane id=":B3_1_0" index="0" speed="13.89" length="20.80" shape="495.20,1510.40 495.20,1489.60"/>
        <lane id=":B3_1_1" index="1" speed="13.89" length="20.80" shape="498.40,1510.40 498.40,1489.60"/>
    </edge>
    <edge id=":B3_3" function="internal">
        <lane id=":B3_3_0" index="0" speed="9.26" length="5.01" shape="498.40,1510.40 499.11,1505.44"/>
    </edge>
    <edge id=":B3_4" function="internal">
        <lane id=":B3_4_0" index="0" speed="3.65" length="1.44" shape="498.40,1510.40 499.20,1509.20"/>
    </edge>
    <edge id=":B3_20" function="internal">
        <lane id=":B3_20_0" index="0" speed="9.26" length="14.34" shape="499.11,1505.44 499.15,1505.15 501.40,1501.40 505.15,1499.15 510.40,1498.40"/>
    </edge>
    <edge id=":B3_21" function="internal">
        <lane id=":B3_21_0" index="0" speed="3.65" length="3.23" shape="499.20,1509.20 500.00,1508.80 500.80,1509.20 501.60,1510.40"/>
    </edge>
    <edge id=":B3_5" function="internal">
        <lane id=":B3_5_0" index="0" speed="6.51" length="9.03" shape="510.40,1504.80 507.95,1505.15 506.20,1506.20 505.15,1507.95 504.80,1510.40"/>
    </edge>
    <edge id=":B3_6" function="internal">
        <lane id=":B3_6_0" index="0" speed="13.89" length="20.80" shape="510.40,1504.80 489.60,1504.80"/>
        <lane id=":B3_6_1" index="1" speed="13.89" length="20.80" shape="510.40,1501.60 489.60,1501.60"/>
    </edge>
    <edge id=":B3_8" function="internal">
        <lane id=":B3_8_0" index="0" speed="9.26" length="5.01" shape="510.40,1501.60 505.44,1500.89"/>
    </edge>
    <edge id=":B3_9" function="internal">
        <lane id=":B3_9_0" index="0" speed="3.65" length="1.44" shape="510.40,1501.60 509.20,1500.80"/>
    </edge>
    <edge id=":B3_22" function="internal">
        <lane id=":B3_22_0" index="0" speed="9.26" length="14.34" shape="505.44,1500.89 505.15,1500.85 501.40,1498.60 499.15,1494.85 498.40,1489.60"/>
    </edge>
    <edge id=":B3_23" function="internal">
        <lane id=":B3_23_0" index="0" speed="3.65" length="3.23" shape="509.20,1500.80 508.80,1500.00 509.20,1499.20 510.40,1498.40"/>
    </edge>
    <edge id=":B3_10" function="internal">
        <lane id=":B3_10_0" index="0" speed="6.51" length="9.03" shape="504.80,1489.60 505.15,1492.05 506.20,1493.80 507.95,1494.85 510.40,1495.20"/>
    </edge>
    <edge id=":B3_11" function="internal">
        <lane id=":B3_11_0" index="0" speed="13.89" length="20.80" shape="504.80,1489.60 504.80,1510.40"/>
        <lane id=":B3_11_1" index="1" speed="13.89" length="20.80" shape="501.60,1489.60 501.60,1510.40"/>
    </edge>
    <edge id=":B3_13" function="internal">
        <lane id=":B3_13_0" index="0" speed="9.26" length="5.01" shape="501.60,1489.60 500.89,1494.56"/>
    </edge>
    <edge id=":B3_14" function="internal">
        <lane id=":B3_14_0" index="0" speed="3.65" length="1.44" shape="501.60,1489.60 500.80,1490.80"/>
    </edge>
    <edge id=":B3_24" function="internal">
        <lane id=":B3_24_0" index="0" speed="9.26" length="14.34" shape="500.89,1494.56 500.85,1494.85 498.60,1498.60 494.85,1500.85 489.60,1501.60"/>
    </edge>
    <edge id=":B3_25" function="internal">
        <lane id=":B3_25_0" index="0" speed="3.65" length="3.23" shape="500.80,1490.80 500.00,1491.20 499.20,1490.80 498.40,1489.60"/>
    </edge>
    <edge id=":B3_15" function="internal">
        <lane id=":B3_15_0" index="0" speed="6.51" length="9.03" shape="489.60,1495.20 492.05,1494.85 493.80,1493.80 494.85,1492.05 495.20,1489.60"/>
    </edge>
    <edge id=":B3_16" function="internal">
        <lane id=":B3_16_0" index="0" speed="13.89" length="20.80" shape="489.60,1495.20 510.40,1495.20"/>
        <lane id=":B3_16_1" index="1" speed="13.89" length="20.80" shape="489.60,1498.40 510.40,1498.40"/>
    </edge>
    <edge id=":B3_18" function="internal">
        <lane id=":B3_18_0" index="0" speed="9.26" length="5.01" shape="489.60,1498.40 494.56,1499.11"/>
    </edge>
    <edge id=":B3_19" function="internal">
        <lane id=":B3_19_0" index="0" speed="3.65" length="1.44" shape="489.60,1498.40 490.80,1499.20"/>
    </edge>
    <edge id=":B3_26" function="internal">
        <lane id=":B3_26_0" index="0" speed="9.26" length="14.34" shape="494.56,1499.11 494.85,1499.15 498.60,1501.40 500.85,1505.15 501.60,1510.40"/>
    </edge>
    <edge id=":B3_27" function="internal">
        <lane id=":B3_27_0" index="0" speed="3.65" length="3.23" shape="490.80,1499.20 491.20,1500.00 490.80,1500.80 489.60,1501.60"/>
    </edge>
    <edge id=":B4_0" function="internal">
        <lane id=":B4_0_0" index="0" speed="13.89" length="20.80" shape="510.40,2004.80 489.60,2004.80"/>
        <lane id=":B4_0_1" index="1" speed="13.89" length="20.80" shape="510.40,2001.60 489.60,2001.60"/>
    </edge>
    <edge id=":B4_2" function="internal">
        <lane id=":B4_2_0" index="0" speed="9.26" length="5.01" shape="510.40,2001.60 505.44,2000.89"/>
    </edge>
    <edge id=":B4_3" function="internal">
        <lane id=":B4_3_0" index="0" speed="3.65" length="1.44" shape="510.40,2001.60 509.20,2000.80"/>
    </edge>
    <edge id=":B4_12" function="internal">
        <lane id=":B4_12_0" index="0" speed="9.26" length="14.34" shape="505.44,2000.89 505.15,2000.85 501.40,1998.60 499.15,1994.85 498.40,1989.60"/>
    </edge>
    <edge id=":B4_13" function="internal">
        <lane id=":B4_13_0" index="0" speed="3.65" length="3.23" shape="509.20,2000.80 508.80,2000.00 509.20,1999.20 510.40,1998.40"/>
    </edge>
    <edge id=":B4_4" function="internal">
        <lane id=":B4_4_0" index="0" speed="6.51" length="9.03" shape="504.80,1989.60 505.15,1992.05 506.20,1993.80 507.95,1994.85 510.40,1995.20"/>
        <lane id=":B4_4_1" index="1" speed="8.00" length="14.19" shape="501.60,1989.60 502.15,1993.45 503.80,1996.20 506.55,1997.85 510.40,1998.40"/>
    </edge>
    <edge id=":B4_6" function="internal">
        <lane id=":B4_6_0" index="0" speed="9.26" length="19.35" shape="501.60,1989.60 500.85,1994.85 498.60,1998.60 494.85,2000.85 489.60,2001.60"/>
    </edge>
    <edge id=":B4_7" function="internal">
        <lane id=":B4_7_0" index="0" speed="3.65" length="2.34" shape="501.60,1989.60 500.80,1990.80 500.00,1991.20"/>
    </edge>
    <edge id=":B4_14" function="internal">
        <lane id=":B4_14_0" index="0" speed="3.65" length="2.34" shape="500.00,1991.20 499.20,1990.80 498.40,1989.60"/>
    </edge>
    <edge id=":B4_8" function="internal">
        <lane id=":B4_8_0" index="0" speed="6.51" length="9.03" shape="489.60,1995.20 492.05,1994.85 493.80,1993.80 494.85,1992.05 495.20,1989.60"/>
    </edge>
    <edge id=":B4_9" function="internal">
        <lane id=":B4_9_0" index="0" speed="13.89" length="20.80" shape="489.60,1995.20 510.40,1995.20"/>
        <lane id=":B4_9_1" index="1" speed="13.89" length="20.80" shape="489.60,1998.40 510.40,1998.40"/>
    </edge>
    <edge id=":B4_11" function="internal">
        <lane id=":B4_11_0" index="0" speed="3.65" length="1.44" shape="489.60,1998.40 490.80,1999.20"/>
    </edge>
    <edge id=":B4_15" function="internal">
        <lane id=":B4_15_0" index="0" speed="3.65" length="3.23" shape="490.80,1999.20 491.20,2000.00 490.80,2000.80 489.60,2001.60"/>
    </edge>
    <edge id=":C0_0" function="internal">
        <lane id=":C0_0_0" index="0" speed="6.51" length="9.03" shape="995.20,10.40 994.85,7.95 993.80,6.20 992.05,5.15 989.60,4.80"/>
        <lane id=":C0_0_1" index="1" speed="8.00" length="14.19" shape="998.40,10.40 997.85,6.55 996.20,3.80 993.45,2.15 989.60,1.60"/>
    </edge>
    <edge id=":C0_2" function="internal">
        <lane id=":C0_2_0" index="0" speed="9.26" length="19.35" shape="998.40,10.40 999.15,5.15 1001.40,1.40 1005.15,-0.85 1010.40,-1.60"/>
    </edge>
    <edge id=":C0_3" function="internal">