<configuration>
  <input>
    <net-file value="grid.net.xml" />
    <route-files value="grid.rou.xml" />
    <additional-files value="rerouter.add.xml" />
  </input>
  <time>
    <begin value="0" />
    <end value="10000" />
  </time>
   <output>
     <fcd-output value="grid.output500.xml" />
   </output>
<!--  <time-to-teleport value="-1" />-->
</configuration>q